*SPEF "ieee 1481-1999"
*DESIGN "iiitb_pwm_gen"
*DATE "11:11:11 Fri 11 11, 1111"
*VENDOR "OpenRCX"
*PROGRAM "Parallel Extraction"
*VERSION "1.0"
*DESIGN_FLOW "NAME_SCOPE LOCAL" "PIN_CAP NONE"
*DIVIDER /
*DELIMITER :
*BUS_DELIMITER []
*T_UNIT 1 NS
*C_UNIT 1 PF
*R_UNIT 1 OHM
*L_UNIT 1 HENRY

*NAME_MAP
*1 PWM_OUT
*2 clk
*3 decrease_duty
*4 increase_duty
*5 reset
*8 DUTY_CYCLE\[0\]
*9 DUTY_CYCLE\[1\]
*10 DUTY_CYCLE\[2\]
*11 DUTY_CYCLE\[3\]
*12 _000_
*13 _001_
*14 _002_
*15 _003_
*16 _004_
*17 _032_
*18 _033_
*19 _034_
*20 _035_
*21 _036_
*22 _037_
*23 _038_
*24 _039_
*25 _040_
*26 _041_
*27 _042_
*28 _043_
*29 _044_
*30 _045_
*31 _046_
*32 _047_
*33 _048_
*34 _049_
*35 _050_
*36 _051_
*37 _052_
*38 _053_
*39 _054_
*40 _055_
*41 _056_
*42 _057_
*43 _058_
*44 _059_
*45 _060_
*46 _061_
*47 _062_
*48 _063_
*49 _064_
*50 _065_
*51 _066_
*52 _067_
*53 _068_
*54 _069_
*55 _070_
*56 _071_
*57 _072_
*58 _073_
*59 _074_
*60 _075_
*61 _076_
*62 _077_
*63 _078_
*64 _079_
*65 _080_
*66 _081_
*67 _082_
*68 _083_
*69 _084_
*70 _085_
*71 _086_
*72 _087_
*73 _088_
*74 _089_
*75 _090_
*76 _091_
*77 _092_
*78 _093_
*79 _094_
*80 _095_
*81 _096_
*82 _097_
*83 _098_
*84 _099_
*85 _100_
*86 _101_
*87 _102_
*88 _103_
*89 _104_
*90 _105_
*91 _106_
*92 _107_
*93 _108_
*94 _109_
*95 _110_
*96 _111_
*97 _112_
*98 _113_
*99 _114_
*100 _115_
*101 _116_
*102 _117_
*103 _118_
*104 _119_
*105 _120_
*106 _121_
*107 _122_
*108 _123_
*109 _124_
*110 _125_
*111 _126_
*112 _127_
*113 _128_
*114 _129_
*115 _130_
*116 _131_
*117 _132_
*118 _133_
*119 _134_
*120 _135_
*121 _136_
*122 _137_
*123 _138_
*124 _139_
*125 _140_
*126 _141_
*127 clknet_0_clk
*128 clknet_2_0__leaf_clk
*129 clknet_2_1__leaf_clk
*130 clknet_2_2__leaf_clk
*131 clknet_2_3__leaf_clk
*132 counter_PWM\[0\]
*133 counter_PWM\[1\]
*134 counter_PWM\[2\]
*135 counter_PWM\[3\]
*136 counter_debounce\[0\]
*137 counter_debounce\[10\]
*138 counter_debounce\[11\]
*139 counter_debounce\[12\]
*140 counter_debounce\[13\]
*141 counter_debounce\[14\]
*142 counter_debounce\[15\]
*143 counter_debounce\[16\]
*144 counter_debounce\[17\]
*145 counter_debounce\[18\]
*146 counter_debounce\[19\]
*147 counter_debounce\[1\]
*148 counter_debounce\[20\]
*149 counter_debounce\[21\]
*150 counter_debounce\[22\]
*151 counter_debounce\[23\]
*152 counter_debounce\[24\]
*153 counter_debounce\[25\]
*154 counter_debounce\[26\]
*155 counter_debounce\[27\]
*156 counter_debounce\[2\]
*157 counter_debounce\[3\]
*158 counter_debounce\[4\]
*159 counter_debounce\[5\]
*160 counter_debounce\[6\]
*161 counter_debounce\[7\]
*162 counter_debounce\[8\]
*163 counter_debounce\[9\]
*164 net1
*165 net10
*166 net11
*167 net12
*168 net13
*169 net14
*170 net15
*171 net16
*172 net17
*173 net18
*174 net19
*175 net2
*176 net20
*177 net21
*178 net22
*179 net23
*180 net24
*181 net25
*182 net26
*183 net27
*184 net28
*185 net29
*186 net3
*187 net30
*188 net31
*189 net4
*190 net5
*191 net6
*192 net7
*193 net8
*194 net9
*195 tmp1
*196 tmp2
*197 tmp3
*198 tmp4
*199 ANTENNA__157__A0
*200 ANTENNA__161__A0
*201 ANTENNA__209__A
*202 ANTENNA__229__A
*203 ANTENNA__230__A
*204 ANTENNA__231__A
*205 ANTENNA__232__A
*206 ANTENNA__233__A
*207 ANTENNA__240__A
*208 ANTENNA__246__A
*209 ANTENNA__252__A
*210 ANTENNA_clkbuf_0_clk_A
*211 ANTENNA_input1_A
*212 ANTENNA_input2_A
*213 ANTENNA_input3_A
*214 FILLER_0_109
*215 FILLER_0_113
*216 FILLER_0_125
*217 FILLER_0_137
*218 FILLER_0_141
*219 FILLER_0_153
*220 FILLER_0_165
*221 FILLER_0_169
*222 FILLER_0_181
*223 FILLER_0_193
*224 FILLER_0_197
*225 FILLER_0_209
*226 FILLER_0_221
*227 FILLER_0_225
*228 FILLER_0_233
*229 FILLER_0_237
*230 FILLER_0_24
*231 FILLER_0_245
*232 FILLER_0_251
*233 FILLER_0_253
*234 FILLER_0_265
*235 FILLER_0_277
*236 FILLER_0_281
*237 FILLER_0_29
*238 FILLER_0_293
*239 FILLER_0_3
*240 FILLER_0_41
*241 FILLER_0_53
*242 FILLER_0_57
*243 FILLER_0_69
*244 FILLER_0_81
*245 FILLER_0_85
*246 FILLER_0_97
*247 FILLER_10_123
*248 FILLER_10_131
*249 FILLER_10_136
*250 FILLER_10_147
*251 FILLER_10_158
*252 FILLER_10_166
*253 FILLER_10_171
*254 FILLER_10_177
*255 FILLER_10_189
*256 FILLER_10_195
*257 FILLER_10_197
*258 FILLER_10_209
*259 FILLER_10_221
*260 FILLER_10_233
*261 FILLER_10_24
*262 FILLER_10_245
*263 FILLER_10_251
*264 FILLER_10_253
*265 FILLER_10_265
*266 FILLER_10_277
*267 FILLER_10_289
*268 FILLER_10_297
*269 FILLER_10_3
*270 FILLER_10_32
*271 FILLER_10_44
*272 FILLER_10_52
*273 FILLER_10_56
*274 FILLER_10_80
*275 FILLER_10_85
*276 FILLER_10_93
*277 FILLER_10_97
*278 FILLER_11_108
*279 FILLER_11_116
*280 FILLER_11_128
*281 FILLER_11_136
*282 FILLER_11_142
*283 FILLER_11_15
*284 FILLER_11_154
*285 FILLER_11_166
*286 FILLER_11_169
*287 FILLER_11_181
*288 FILLER_11_193
*289 FILLER_11_205
*290 FILLER_11_217
*291 FILLER_11_223
*292 FILLER_11_225
*293 FILLER_11_237
*294 FILLER_11_249
*295 FILLER_11_261
*296 FILLER_11_273
*297 FILLER_11_279
*298 FILLER_11_281
*299 FILLER_11_293
*300 FILLER_11_3
*301 FILLER_11_43
*302 FILLER_11_55
*303 FILLER_11_57
*304 FILLER_11_68
*305 FILLER_11_80
*306 FILLER_12_100
*307 FILLER_12_112
*308 FILLER_12_124
*309 FILLER_12_136
*310 FILLER_12_141
*311 FILLER_12_146
*312 FILLER_12_15
*313 FILLER_12_158
*314 FILLER_12_170
*315 FILLER_12_182
*316 FILLER_12_194
*317 FILLER_12_197
*318 FILLER_12_209
*319 FILLER_12_221
*320 FILLER_12_233
*321 FILLER_12_245
*322 FILLER_12_251
*323 FILLER_12_253
*324 FILLER_12_265
*325 FILLER_12_27
*326 FILLER_12_277
*327 FILLER_12_289
*328 FILLER_12_29
*329 FILLER_12_297
*330 FILLER_12_3
*331 FILLER_12_41
*332 FILLER_12_73
*333 FILLER_12_81
*334 FILLER_12_85
*335 FILLER_13_104
*336 FILLER_13_133
*337 FILLER_13_139
*338 FILLER_13_145
*339 FILLER_13_161
*340 FILLER_13_167
*341 FILLER_13_171
*342 FILLER_13_183
*343 FILLER_13_191
*344 FILLER_13_196
*345 FILLER_13_203
*346 FILLER_13_215
*347 FILLER_13_223
*348 FILLER_13_225
*349 FILLER_13_237
*350 FILLER_13_249
*351 FILLER_13_261
*352 FILLER_13_27
*353 FILLER_13_273
*354 FILLER_13_279
*355 FILLER_13_281
*356 FILLER_13_293
*357 FILLER_13_3
*358 FILLER_13_39
*359 FILLER_13_51
*360 FILLER_13_55
*361 FILLER_13_57
*362 FILLER_13_80
*363 FILLER_13_92
*364 FILLER_14_120
*365 FILLER_14_132
*366 FILLER_14_141
*367 FILLER_14_148
*368 FILLER_14_160
*369 FILLER_14_172
*370 FILLER_14_184
*371 FILLER_14_197
*372 FILLER_14_209
*373 FILLER_14_221
*374 FILLER_14_233
*375 FILLER_14_24
*376 FILLER_14_245
*377 FILLER_14_251
*378 FILLER_14_253
*379 FILLER_14_265
*380 FILLER_14_277
*381 FILLER_14_289
*382 FILLER_14_29
*383 FILLER_14_297
*384 FILLER_14_3
*385 FILLER_14_41
*386 FILLER_14_53
*387 FILLER_14_76
*388 FILLER_14_85
*389 FILLER_14_97
*390 FILLER_15_106
*391 FILLER_15_133
*392 FILLER_15_145
*393 FILLER_15_152
*394 FILLER_15_164
*395 FILLER_15_169
*396 FILLER_15_181
*397 FILLER_15_193
*398 FILLER_15_205
*399 FILLER_15_217
*400 FILLER_15_223
*401 FILLER_15_225
*402 FILLER_15_237
*403 FILLER_15_249
*404 FILLER_15_261
*405 FILLER_15_273
*406 FILLER_15_279
*407 FILLER_15_28
*408 FILLER_15_281
*409 FILLER_15_293
*410 FILLER_15_3
*411 FILLER_15_52
*412 FILLER_15_7
*413 FILLER_15_78
*414 FILLER_15_84
*415 FILLER_16_101
*416 FILLER_16_122
*417 FILLER_16_134
*418 FILLER_16_141
*419 FILLER_16_147
*420 FILLER_16_151
*421 FILLER_16_163
*422 FILLER_16_175
*423 FILLER_16_187
*424 FILLER_16_195
*425 FILLER_16_197
*426 FILLER_16_209
*427 FILLER_16_221
*428 FILLER_16_233
*429 FILLER_16_24
*430 FILLER_16_245
*431 FILLER_16_251
*432 FILLER_16_253
*433 FILLER_16_265
*434 FILLER_16_277
*435 FILLER_16_289
*436 FILLER_16_29
*437 FILLER_16_297
*438 FILLER_16_3
*439 FILLER_16_51
*440 FILLER_16_63
*441 FILLER_16_75
*442 FILLER_16_83
*443 FILLER_16_85
*444 FILLER_16_97
*445 FILLER_17_101
*446 FILLER_17_107
*447 FILLER_17_111
*448 FILLER_17_116
*449 FILLER_17_128
*450 FILLER_17_140
*451 FILLER_17_15
*452 FILLER_17_152
*453 FILLER_17_164
*454 FILLER_17_169
*455 FILLER_17_181
*456 FILLER_17_193
*457 FILLER_17_205
*458 FILLER_17_217
*459 FILLER_17_223
*460 FILLER_17_225
*461 FILLER_17_237
*462 FILLER_17_249
*463 FILLER_17_261
*464 FILLER_17_27
*465 FILLER_17_273
*466 FILLER_17_279
*467 FILLER_17_281
*468 FILLER_17_293
*469 FILLER_17_3
*470 FILLER_17_35
*471 FILLER_17_41
*472 FILLER_17_53
*473 FILLER_17_57
*474 FILLER_17_69
*475 FILLER_17_93
*476 FILLER_18_109
*477 FILLER_18_121
*478 FILLER_18_133
*479 FILLER_18_139
*480 FILLER_18_15
*481 FILLER_18_150
*482 FILLER_18_156
*483 FILLER_18_168
*484 FILLER_18_180
*485 FILLER_18_192
*486 FILLER_18_197
*487 FILLER_18_209
*488 FILLER_18_221
*489 FILLER_18_233
*490 FILLER_18_245
*491 FILLER_18_251
*492 FILLER_18_253
*493 FILLER_18_265
*494 FILLER_18_27
*495 FILLER_18_277
*496 FILLER_18_289
*497 FILLER_18_29
*498 FILLER_18_297
*499 FILLER_18_3
*500 FILLER_18_41
*501 FILLER_18_45
*502 FILLER_18_57
*503 FILLER_18_69
*504 FILLER_18_81
*505 FILLER_18_85
*506 FILLER_18_97
*507 FILLER_19_105
*508 FILLER_19_111
*509 FILLER_19_113
*510 FILLER_19_119
*511 FILLER_19_131
*512 FILLER_19_137
*513 FILLER_19_142
*514 FILLER_19_15
*515 FILLER_19_150
*516 FILLER_19_162
*517 FILLER_19_169
*518 FILLER_19_181
*519 FILLER_19_193
*520 FILLER_19_205
*521 FILLER_19_217
*522 FILLER_19_223
*523 FILLER_19_225
*524 FILLER_19_237
*525 FILLER_19_249
*526 FILLER_19_261
*527 FILLER_19_273
*528 FILLER_19_279
*529 FILLER_19_281
*530 FILLER_19_29
*531 FILLER_19_293
*532 FILLER_19_3
*533 FILLER_19_36
*534 FILLER_19_43
*535 FILLER_19_50
*536 FILLER_19_57
*537 FILLER_19_61
*538 FILLER_19_65
*539 FILLER_19_72
*540 FILLER_19_84
*541 FILLER_19_93
*542 FILLER_1_108
*543 FILLER_1_113
*544 FILLER_1_125
*545 FILLER_1_137
*546 FILLER_1_143
*547 FILLER_1_147
*548 FILLER_1_15
*549 FILLER_1_154
*550 FILLER_1_166
*551 FILLER_1_169
*552 FILLER_1_181
*553 FILLER_1_193
*554 FILLER_1_205
*555 FILLER_1_217
*556 FILLER_1_223
*557 FILLER_1_225
*558 FILLER_1_237
*559 FILLER_1_249
*560 FILLER_1_261
*561 FILLER_1_273
*562 FILLER_1_279
*563 FILLER_1_281
*564 FILLER_1_293
*565 FILLER_1_3
*566 FILLER_1_36
*567 FILLER_1_45
*568 FILLER_1_52
*569 FILLER_1_57
*570 FILLER_1_62
*571 FILLER_1_74
*572 FILLER_1_97
*573 FILLER_20_107
*574 FILLER_20_114
*575 FILLER_20_127
*576 FILLER_20_139
*577 FILLER_20_146
*578 FILLER_20_154
*579 FILLER_20_166
*580 FILLER_20_178
*581 FILLER_20_190
*582 FILLER_20_197
*583 FILLER_20_20
*584 FILLER_20_209
*585 FILLER_20_221
*586 FILLER_20_233
*587 FILLER_20_245
*588 FILLER_20_251
*589 FILLER_20_253
*590 FILLER_20_265
*591 FILLER_20_277
*592 FILLER_20_289
*593 FILLER_20_29
*594 FILLER_20_297
*595 FILLER_20_3
*596 FILLER_20_37
*597 FILLER_20_44
*598 FILLER_20_51
*599 FILLER_20_64
*600 FILLER_20_75
*601 FILLER_20_83
*602 FILLER_20_85
*603 FILLER_20_89
*604 FILLER_20_9
*605 FILLER_20_98
*606 FILLER_21_102
*607 FILLER_21_110
*608 FILLER_21_113
*609 FILLER_21_12
*610 FILLER_21_125
*611 FILLER_21_135
*612 FILLER_21_142
*613 FILLER_21_154
*614 FILLER_21_166
*615 FILLER_21_169
*616 FILLER_21_181
*617 FILLER_21_193
*618 FILLER_21_205
*619 FILLER_21_217
*620 FILLER_21_223
*621 FILLER_21_225
*622 FILLER_21_23
*623 FILLER_21_237
*624 FILLER_21_249
*625 FILLER_21_261
*626 FILLER_21_273
*627 FILLER_21_279
*628 FILLER_21_281
*629 FILLER_21_293
*630 FILLER_21_3
*631 FILLER_21_37
*632 FILLER_21_52
*633 FILLER_21_57
*634 FILLER_21_61
*635 FILLER_21_71
*636 FILLER_21_78
*637 FILLER_21_82
*638 FILLER_21_90
*639 FILLER_21_94
*640 FILLER_22_106
*641 FILLER_22_117
*642 FILLER_22_124
*643 FILLER_22_136
*644 FILLER_22_141
*645 FILLER_22_153
*646 FILLER_22_165
*647 FILLER_22_17
*648 FILLER_22_177
*649 FILLER_22_189
*650 FILLER_22_195
*651 FILLER_22_197
*652 FILLER_22_209
*653 FILLER_22_221
*654 FILLER_22_233
*655 FILLER_22_24
*656 FILLER_22_245
*657 FILLER_22_251
*658 FILLER_22_253
*659 FILLER_22_265
*660 FILLER_22_277
*661 FILLER_22_289
*662 FILLER_22_297
*663 FILLER_22_3
*664 FILLER_22_33
*665 FILLER_22_41
*666 FILLER_22_45
*667 FILLER_22_57
*668 FILLER_22_61
*669 FILLER_22_73
*670 FILLER_22_80
*671 FILLER_22_85
*672 FILLER_22_97
*673 FILLER_23_109
*674 FILLER_23_113
*675 FILLER_23_126
*676 FILLER_23_138
*677 FILLER_23_14
*678 FILLER_23_150
*679 FILLER_23_162
*680 FILLER_23_169
*681 FILLER_23_181
*682 FILLER_23_193
*683 FILLER_23_205
*684 FILLER_23_217
*685 FILLER_23_223
*686 FILLER_23_225
*687 FILLER_23_237
*688 FILLER_23_249
*689 FILLER_23_26
*690 FILLER_23_261
*691 FILLER_23_273
*692 FILLER_23_279
*693 FILLER_23_281
*694 FILLER_23_293
*695 FILLER_23_3
*696 FILLER_23_34
*697 FILLER_23_42
*698 FILLER_23_54
*699 FILLER_23_60
*700 FILLER_23_68
*701 FILLER_23_73
*702 FILLER_23_85
*703 FILLER_23_97
*704 FILLER_24_104
*705 FILLER_24_112
*706 FILLER_24_120
*707 FILLER_24_126
*708 FILLER_24_136
*709 FILLER_24_141
*710 FILLER_24_15
*711 FILLER_24_153
*712 FILLER_24_165
*713 FILLER_24_177
*714 FILLER_24_189
*715 FILLER_24_195
*716 FILLER_24_197
*717 FILLER_24_209
*718 FILLER_24_221
*719 FILLER_24_233
*720 FILLER_24_245
*721 FILLER_24_251
*722 FILLER_24_253
*723 FILLER_24_265
*724 FILLER_24_27
*725 FILLER_24_277
*726 FILLER_24_289
*727 FILLER_24_29
*728 FILLER_24_297
*729 FILLER_24_3
*730 FILLER_24_41
*731 FILLER_24_45
*732 FILLER_24_54
*733 FILLER_24_61
*734 FILLER_24_70
*735 FILLER_24_82
*736 FILLER_24_92
*737 FILLER_25_102
*738 FILLER_25_110
*739 FILLER_25_113
*740 FILLER_25_121
*741 FILLER_25_133
*742 FILLER_25_145
*743 FILLER_25_15
*744 FILLER_25_157
*745 FILLER_25_165
*746 FILLER_25_169
*747 FILLER_25_181
*748 FILLER_25_193
*749 FILLER_25_205
*750 FILLER_25_217
*751 FILLER_25_223
*752 FILLER_25_225
*753 FILLER_25_237
*754 FILLER_25_249
*755 FILLER_25_261
*756 FILLER_25_273
*757 FILLER_25_279
*758 FILLER_25_281
*759 FILLER_25_293
*760 FILLER_25_3
*761 FILLER_25_31
*762 FILLER_25_46
*763 FILLER_25_54
*764 FILLER_25_61
*765 FILLER_25_78
*766 FILLER_25_82
*767 FILLER_25_90
*768 FILLER_26_103
*769 FILLER_26_117
*770 FILLER_26_129
*771 FILLER_26_137
*772 FILLER_26_141
*773 FILLER_26_15
*774 FILLER_26_153
*775 FILLER_26_165
*776 FILLER_26_177
*777 FILLER_26_189
*778 FILLER_26_195
*779 FILLER_26_197
*780 FILLER_26_209
*781 FILLER_26_221
*782 FILLER_26_233
*783 FILLER_26_245
*784 FILLER_26_251
*785 FILLER_26_253
*786 FILLER_26_265
*787 FILLER_26_27
*788 FILLER_26_277
*789 FILLER_26_289
*790 FILLER_26_29
*791 FILLER_26_297
*792 FILLER_26_3
*793 FILLER_26_37
*794 FILLER_26_49
*795 FILLER_26_61
*796 FILLER_26_66
*797 FILLER_26_79
*798 FILLER_26_83
*799 FILLER_26_85
*800 FILLER_26_94
*801 FILLER_27_100
*802 FILLER_27_113
*803 FILLER_27_125
*804 FILLER_27_137
*805 FILLER_27_149
*806 FILLER_27_15
*807 FILLER_27_161
*808 FILLER_27_167
*809 FILLER_27_169
*810 FILLER_27_181
*811 FILLER_27_193
*812 FILLER_27_205
*813 FILLER_27_217
*814 FILLER_27_223
*815 FILLER_27_225
*816 FILLER_27_237
*817 FILLER_27_249
*818 FILLER_27_261
*819 FILLER_27_27
*820 FILLER_27_273
*821 FILLER_27_279
*822 FILLER_27_281
*823 FILLER_27_285
*824 FILLER_27_288
*825 FILLER_27_295
*826 FILLER_27_3
*827 FILLER_27_35
*828 FILLER_27_44
*829 FILLER_27_57
*830 FILLER_27_76
*831 FILLER_27_80
*832 FILLER_27_88
*833 FILLER_28_109
*834 FILLER_28_121
*835 FILLER_28_133
*836 FILLER_28_139
*837 FILLER_28_141
*838 FILLER_28_15
*839 FILLER_28_153
*840 FILLER_28_165
*841 FILLER_28_177
*842 FILLER_28_189
*843 FILLER_28_195
*844 FILLER_28_197
*845 FILLER_28_209
*846 FILLER_28_221
*847 FILLER_28_233
*848 FILLER_28_245
*849 FILLER_28_251
*850 FILLER_28_253
*851 FILLER_28_265
*852 FILLER_28_27
*853 FILLER_28_277
*854 FILLER_28_289
*855 FILLER_28_29
*856 FILLER_28_297
*857 FILLER_28_3
*858 FILLER_28_41
*859 FILLER_28_53
*860 FILLER_28_65
*861 FILLER_28_77
*862 FILLER_28_83
*863 FILLER_28_85
*864 FILLER_28_97
*865 FILLER_29_105
*866 FILLER_29_111
*867 FILLER_29_113
*868 FILLER_29_125
*869 FILLER_29_137
*870 FILLER_29_149
*871 FILLER_29_15
*872 FILLER_29_161
*873 FILLER_29_167
*874 FILLER_29_169
*875 FILLER_29_181
*876 FILLER_29_193
*877 FILLER_29_205
*878 FILLER_29_217
*879 FILLER_29_223
*880 FILLER_29_225
*881 FILLER_29_237
*882 FILLER_29_249
*883 FILLER_29_261
*884 FILLER_29_27
*885 FILLER_29_273
*886 FILLER_29_279
*887 FILLER_29_281
*888 FILLER_29_293
*889 FILLER_29_3
*890 FILLER_29_39
*891 FILLER_29_51
*892 FILLER_29_55
*893 FILLER_29_57
*894 FILLER_29_69
*895 FILLER_29_81
*896 FILLER_29_93
*897 FILLER_2_10
*898 FILLER_2_100
*899 FILLER_2_121
*900 FILLER_2_133
*901 FILLER_2_139
*902 FILLER_2_141
*903 FILLER_2_153
*904 FILLER_2_161
*905 FILLER_2_165
*906 FILLER_2_17
*907 FILLER_2_177
*908 FILLER_2_189
*909 FILLER_2_195
*910 FILLER_2_197
*911 FILLER_2_209
*912 FILLER_2_221
*913 FILLER_2_233
*914 FILLER_2_24
*915 FILLER_2_245
*916 FILLER_2_251
*917 FILLER_2_253
*918 FILLER_2_265
*919 FILLER_2_277
*920 FILLER_2_289
*921 FILLER_2_29
*922 FILLER_2_297
*923 FILLER_2_3
*924 FILLER_2_51
*925 FILLER_2_75
*926 FILLER_2_83
*927 FILLER_2_88
*928 FILLER_30_109
*929 FILLER_30_121
*930 FILLER_30_133
*931 FILLER_30_139
*932 FILLER_30_141
*933 FILLER_30_15
*934 FILLER_30_153
*935 FILLER_30_165
*936 FILLER_30_177
*937 FILLER_30_189
*938 FILLER_30_195
*939 FILLER_30_197
*940 FILLER_30_209
*941 FILLER_30_221
*942 FILLER_30_233
*943 FILLER_30_245
*944 FILLER_30_251
*945 FILLER_30_253
*946 FILLER_30_265
*947 FILLER_30_27
*948 FILLER_30_277
*949 FILLER_30_289
*950 FILLER_30_29
*951 FILLER_30_297
*952 FILLER_30_3
*953 FILLER_30_41
*954 FILLER_30_53
*955 FILLER_30_65
*956 FILLER_30_77
*957 FILLER_30_83
*958 FILLER_30_85
*959 FILLER_30_97
*960 FILLER_31_105
*961 FILLER_31_111
*962 FILLER_31_113
*963 FILLER_31_125
*964 FILLER_31_137
*965 FILLER_31_149
*966 FILLER_31_15
*967 FILLER_31_161
*968 FILLER_31_167
*969 FILLER_31_169
*970 FILLER_31_181
*971 FILLER_31_193
*972 FILLER_31_205
*973 FILLER_31_217
*974 FILLER_31_223
*975 FILLER_31_225
*976 FILLER_31_237
*977 FILLER_31_249
*978 FILLER_31_261
*979 FILLER_31_27
*980 FILLER_31_273
*981 FILLER_31_279
*982 FILLER_31_281
*983 FILLER_31_293
*984 FILLER_31_3
*985 FILLER_31_39
*986 FILLER_31_51
*987 FILLER_31_55
*988 FILLER_31_57
*989 FILLER_31_69
*990 FILLER_31_81
*991 FILLER_31_93
*992 FILLER_32_109
*993 FILLER_32_121
*994 FILLER_32_133
*995 FILLER_32_139
*996 FILLER_32_141
*997 FILLER_32_15
*998 FILLER_32_153
*999 FILLER_32_165
*1000 FILLER_32_177
*1001 FILLER_32_189
*1002 FILLER_32_195
*1003 FILLER_32_197
*1004 FILLER_32_209
*1005 FILLER_32_21
*1006 FILLER_32_221
*1007 FILLER_32_233
*1008 FILLER_32_245
*1009 FILLER_32_251
*1010 FILLER_32_253
*1011 FILLER_32_265
*1012 FILLER_32_27
*1013 FILLER_32_277
*1014 FILLER_32_289
*1015 FILLER_32_297
*1016 FILLER_32_3
*1017 FILLER_32_31
*1018 FILLER_32_43
*1019 FILLER_32_55
*1020 FILLER_32_67
*1021 FILLER_32_79
*1022 FILLER_32_83
*1023 FILLER_32_85
*1024 FILLER_32_97
*1025 FILLER_33_105
*1026 FILLER_33_111
*1027 FILLER_33_113
*1028 FILLER_33_125
*1029 FILLER_33_137
*1030 FILLER_33_149
*1031 FILLER_33_15
*1032 FILLER_33_161
*1033 FILLER_33_167
*1034 FILLER_33_169
*1035 FILLER_33_181
*1036 FILLER_33_193
*1037 FILLER_33_205
*1038 FILLER_33_217
*1039 FILLER_33_223
*1040 FILLER_33_225
*1041 FILLER_33_23
*1042 FILLER_33_237
*1043 FILLER_33_249
*1044 FILLER_33_261
*1045 FILLER_33_27
*1046 FILLER_33_273
*1047 FILLER_33_279
*1048 FILLER_33_281
*1049 FILLER_33_293
*1050 FILLER_33_3
*1051 FILLER_33_33
*1052 FILLER_33_45
*1053 FILLER_33_53
*1054 FILLER_33_57
*1055 FILLER_33_69
*1056 FILLER_33_81
*1057 FILLER_33_93
*1058 FILLER_34_109
*1059 FILLER_34_121
*1060 FILLER_34_133
*1061 FILLER_34_139
*1062 FILLER_34_141
*1063 FILLER_34_15
*1064 FILLER_34_153
*1065 FILLER_34_165
*1066 FILLER_34_177
*1067 FILLER_34_189
*1068 FILLER_34_195
*1069 FILLER_34_197
*1070 FILLER_34_209
*1071 FILLER_34_221
*1072 FILLER_34_233
*1073 FILLER_34_245
*1074 FILLER_34_251
*1075 FILLER_34_253
*1076 FILLER_34_265
*1077 FILLER_34_27
*1078 FILLER_34_277
*1079 FILLER_34_289
*1080 FILLER_34_29
*1081 FILLER_34_297
*1082 FILLER_34_3
*1083 FILLER_34_41
*1084 FILLER_34_53
*1085 FILLER_34_65
*1086 FILLER_34_77
*1087 FILLER_34_83
*1088 FILLER_34_85
*1089 FILLER_34_97
*1090 FILLER_35_105
*1091 FILLER_35_111
*1092 FILLER_35_113
*1093 FILLER_35_125
*1094 FILLER_35_137
*1095 FILLER_35_149
*1096 FILLER_35_15
*1097 FILLER_35_161
*1098 FILLER_35_167
*1099 FILLER_35_169
*1100 FILLER_35_181
*1101 FILLER_35_193
*1102 FILLER_35_205
*1103 FILLER_35_217
*1104 FILLER_35_223
*1105 FILLER_35_225
*1106 FILLER_35_237
*1107 FILLER_35_249
*1108 FILLER_35_261
*1109 FILLER_35_27
*1110 FILLER_35_273
*1111 FILLER_35_279
*1112 FILLER_35_281
*1113 FILLER_35_293
*1114 FILLER_35_3
*1115 FILLER_35_39
*1116 FILLER_35_51
*1117 FILLER_35_55
*1118 FILLER_35_57
*1119 FILLER_35_69
*1120 FILLER_35_81
*1121 FILLER_35_93
*1122 FILLER_36_109
*1123 FILLER_36_121
*1124 FILLER_36_133
*1125 FILLER_36_139
*1126 FILLER_36_141
*1127 FILLER_36_15
*1128 FILLER_36_153
*1129 FILLER_36_165
*1130 FILLER_36_177
*1131 FILLER_36_189
*1132 FILLER_36_195
*1133 FILLER_36_197
*1134 FILLER_36_209
*1135 FILLER_36_221
*1136 FILLER_36_233
*1137 FILLER_36_245
*1138 FILLER_36_251
*1139 FILLER_36_253
*1140 FILLER_36_265
*1141 FILLER_36_27
*1142 FILLER_36_277
*1143 FILLER_36_289
*1144 FILLER_36_29
*1145 FILLER_36_297
*1146 FILLER_36_3
*1147 FILLER_36_41
*1148 FILLER_36_53
*1149 FILLER_36_65
*1150 FILLER_36_77
*1151 FILLER_36_83
*1152 FILLER_36_85
*1153 FILLER_36_97
*1154 FILLER_37_105
*1155 FILLER_37_111
*1156 FILLER_37_113
*1157 FILLER_37_125
*1158 FILLER_37_137
*1159 FILLER_37_149
*1160 FILLER_37_15
*1161 FILLER_37_161
*1162 FILLER_37_167
*1163 FILLER_37_169
*1164 FILLER_37_181
*1165 FILLER_37_193
*1166 FILLER_37_205
*1167 FILLER_37_217
*1168 FILLER_37_223
*1169 FILLER_37_225
*1170 FILLER_37_237
*1171 FILLER_37_249
*1172 FILLER_37_261
*1173 FILLER_37_27
*1174 FILLER_37_273
*1175 FILLER_37_279
*1176 FILLER_37_281
*1177 FILLER_37_293
*1178 FILLER_37_3
*1179 FILLER_37_39
*1180 FILLER_37_51
*1181 FILLER_37_55
*1182 FILLER_37_57
*1183 FILLER_37_69
*1184 FILLER_37_81
*1185 FILLER_37_93
*1186 FILLER_38_109
*1187 FILLER_38_121
*1188 FILLER_38_133
*1189 FILLER_38_139
*1190 FILLER_38_141
*1191 FILLER_38_15
*1192 FILLER_38_153
*1193 FILLER_38_165
*1194 FILLER_38_177
*1195 FILLER_38_189
*1196 FILLER_38_195
*1197 FILLER_38_197
*1198 FILLER_38_209
*1199 FILLER_38_221
*1200 FILLER_38_233
*1201 FILLER_38_245
*1202 FILLER_38_251
*1203 FILLER_38_253
*1204 FILLER_38_265
*1205 FILLER_38_27
*1206 FILLER_38_277
*1207 FILLER_38_289
*1208 FILLER_38_29
*1209 FILLER_38_297
*1210 FILLER_38_3
*1211 FILLER_38_41
*1212 FILLER_38_53
*1213 FILLER_38_65
*1214 FILLER_38_77
*1215 FILLER_38_83
*1216 FILLER_38_85
*1217 FILLER_38_97
*1218 FILLER_39_105
*1219 FILLER_39_111
*1220 FILLER_39_113
*1221 FILLER_39_125
*1222 FILLER_39_137
*1223 FILLER_39_149
*1224 FILLER_39_15
*1225 FILLER_39_161
*1226 FILLER_39_167
*1227 FILLER_39_169
*1228 FILLER_39_181
*1229 FILLER_39_193
*1230 FILLER_39_205
*1231 FILLER_39_217
*1232 FILLER_39_223
*1233 FILLER_39_225
*1234 FILLER_39_237
*1235 FILLER_39_249
*1236 FILLER_39_261
*1237 FILLER_39_27
*1238 FILLER_39_273
*1239 FILLER_39_279
*1240 FILLER_39_281
*1241 FILLER_39_293
*1242 FILLER_39_3
*1243 FILLER_39_39
*1244 FILLER_39_51
*1245 FILLER_39_55
*1246 FILLER_39_57
*1247 FILLER_39_69
*1248 FILLER_39_81
*1249 FILLER_39_93
*1250 FILLER_3_101
*1251 FILLER_3_106
*1252 FILLER_3_133
*1253 FILLER_3_145
*1254 FILLER_3_157
*1255 FILLER_3_165
*1256 FILLER_3_169
*1257 FILLER_3_181
*1258 FILLER_3_193
*1259 FILLER_3_205
*1260 FILLER_3_217
*1261 FILLER_3_223
*1262 FILLER_3_225
*1263 FILLER_3_237
*1264 FILLER_3_249
*1265 FILLER_3_261
*1266 FILLER_3_273
*1267 FILLER_3_279
*1268 FILLER_3_281
*1269 FILLER_3_293
*1270 FILLER_3_3
*1271 FILLER_3_30
*1272 FILLER_3_42
*1273 FILLER_3_54
*1274 FILLER_3_77
*1275 FILLER_3_89
*1276 FILLER_3_9
*1277 FILLER_40_109
*1278 FILLER_40_121
*1279 FILLER_40_133
*1280 FILLER_40_139
*1281 FILLER_40_141
*1282 FILLER_40_15
*1283 FILLER_40_153
*1284 FILLER_40_165
*1285 FILLER_40_177
*1286 FILLER_40_189
*1287 FILLER_40_195
*1288 FILLER_40_197
*1289 FILLER_40_209
*1290 FILLER_40_221
*1291 FILLER_40_233
*1292 FILLER_40_245
*1293 FILLER_40_251
*1294 FILLER_40_253
*1295 FILLER_40_265
*1296 FILLER_40_27
*1297 FILLER_40_277
*1298 FILLER_40_289
*1299 FILLER_40_29
*1300 FILLER_40_297
*1301 FILLER_40_3
*1302 FILLER_40_41
*1303 FILLER_40_53
*1304 FILLER_40_65
*1305 FILLER_40_77
*1306 FILLER_40_83
*1307 FILLER_40_85
*1308 FILLER_40_97
*1309 FILLER_41_105
*1310 FILLER_41_111
*1311 FILLER_41_113
*1312 FILLER_41_125
*1313 FILLER_41_137
*1314 FILLER_41_149
*1315 FILLER_41_161
*1316 FILLER_41_167
*1317 FILLER_41_169
*1318 FILLER_41_181
*1319 FILLER_41_19
*1320 FILLER_41_193
*1321 FILLER_41_205
*1322 FILLER_41_217
*1323 FILLER_41_223
*1324 FILLER_41_225
*1325 FILLER_41_237
*1326 FILLER_41_249
*1327 FILLER_41_261
*1328 FILLER_41_273
*1329 FILLER_41_279
*1330 FILLER_41_281
*1331 FILLER_41_293
*1332 FILLER_41_31
*1333 FILLER_41_43
*1334 FILLER_41_55
*1335 FILLER_41_57
*1336 FILLER_41_69
*1337 FILLER_41_7
*1338 FILLER_41_81
*1339 FILLER_41_93
*1340 FILLER_42_109
*1341 FILLER_42_121
*1342 FILLER_42_133
*1343 FILLER_42_139
*1344 FILLER_42_141
*1345 FILLER_42_15
*1346 FILLER_42_153
*1347 FILLER_42_165
*1348 FILLER_42_177
*1349 FILLER_42_189
*1350 FILLER_42_195
*1351 FILLER_42_197
*1352 FILLER_42_209
*1353 FILLER_42_221
*1354 FILLER_42_233
*1355 FILLER_42_245
*1356 FILLER_42_251
*1357 FILLER_42_253
*1358 FILLER_42_265
*1359 FILLER_42_27
*1360 FILLER_42_277
*1361 FILLER_42_289
*1362 FILLER_42_29
*1363 FILLER_42_297
*1364 FILLER_42_3
*1365 FILLER_42_41
*1366 FILLER_42_53
*1367 FILLER_42_65
*1368 FILLER_42_77
*1369 FILLER_42_83
*1370 FILLER_42_85
*1371 FILLER_42_97
*1372 FILLER_43_105
*1373 FILLER_43_111
*1374 FILLER_43_113
*1375 FILLER_43_125
*1376 FILLER_43_137
*1377 FILLER_43_149
*1378 FILLER_43_15
*1379 FILLER_43_161
*1380 FILLER_43_167
*1381 FILLER_43_169
*1382 FILLER_43_181
*1383 FILLER_43_193
*1384 FILLER_43_205
*1385 FILLER_43_217
*1386 FILLER_43_223
*1387 FILLER_43_225
*1388 FILLER_43_237
*1389 FILLER_43_249
*1390 FILLER_43_261
*1391 FILLER_43_27
*1392 FILLER_43_273
*1393 FILLER_43_279
*1394 FILLER_43_281
*1395 FILLER_43_293
*1396 FILLER_43_3
*1397 FILLER_43_39
*1398 FILLER_43_51
*1399 FILLER_43_55
*1400 FILLER_43_57
*1401 FILLER_43_69
*1402 FILLER_43_81
*1403 FILLER_43_93
*1404 FILLER_44_109
*1405 FILLER_44_121
*1406 FILLER_44_133
*1407 FILLER_44_139
*1408 FILLER_44_141
*1409 FILLER_44_15
*1410 FILLER_44_153
*1411 FILLER_44_165
*1412 FILLER_44_177
*1413 FILLER_44_189
*1414 FILLER_44_195
*1415 FILLER_44_197
*1416 FILLER_44_209
*1417 FILLER_44_221
*1418 FILLER_44_233
*1419 FILLER_44_245
*1420 FILLER_44_251
*1421 FILLER_44_253
*1422 FILLER_44_265
*1423 FILLER_44_27
*1424 FILLER_44_277
*1425 FILLER_44_289
*1426 FILLER_44_29
*1427 FILLER_44_297
*1428 FILLER_44_3
*1429 FILLER_44_41
*1430 FILLER_44_53
*1431 FILLER_44_65
*1432 FILLER_44_77
*1433 FILLER_44_83
*1434 FILLER_44_85
*1435 FILLER_44_97
*1436 FILLER_45_105
*1437 FILLER_45_111
*1438 FILLER_45_113
*1439 FILLER_45_125
*1440 FILLER_45_137
*1441 FILLER_45_149
*1442 FILLER_45_15
*1443 FILLER_45_161
*1444 FILLER_45_167
*1445 FILLER_45_169
*1446 FILLER_45_181
*1447 FILLER_45_193
*1448 FILLER_45_205
*1449 FILLER_45_217
*1450 FILLER_45_223
*1451 FILLER_45_225
*1452 FILLER_45_237
*1453 FILLER_45_249
*1454 FILLER_45_261
*1455 FILLER_45_27
*1456 FILLER_45_273
*1457 FILLER_45_279
*1458 FILLER_45_281
*1459 FILLER_45_293
*1460 FILLER_45_3
*1461 FILLER_45_39
*1462 FILLER_45_51
*1463 FILLER_45_55
*1464 FILLER_45_57
*1465 FILLER_45_69
*1466 FILLER_45_81
*1467 FILLER_45_93
*1468 FILLER_46_109
*1469 FILLER_46_113
*1470 FILLER_46_125
*1471 FILLER_46_137
*1472 FILLER_46_141
*1473 FILLER_46_15
*1474 FILLER_46_153
*1475 FILLER_46_165
*1476 FILLER_46_169
*1477 FILLER_46_177
*1478 FILLER_46_181
*1479 FILLER_46_188
*1480 FILLER_46_197
*1481 FILLER_46_209
*1482 FILLER_46_221
*1483 FILLER_46_225
*1484 FILLER_46_237
*1485 FILLER_46_249
*1486 FILLER_46_253
*1487 FILLER_46_265
*1488 FILLER_46_27
*1489 FILLER_46_277
*1490 FILLER_46_281
*1491 FILLER_46_29
*1492 FILLER_46_293
*1493 FILLER_46_3
*1494 FILLER_46_41
*1495 FILLER_46_53
*1496 FILLER_46_57
*1497 FILLER_46_69
*1498 FILLER_46_81
*1499 FILLER_46_85
*1500 FILLER_46_97
*1501 FILLER_4_120
*1502 FILLER_4_132
*1503 FILLER_4_136
*1504 FILLER_4_144
*1505 FILLER_4_151
*1506 FILLER_4_163
*1507 FILLER_4_168
*1508 FILLER_4_174
*1509 FILLER_4_186
*1510 FILLER_4_194
*1511 FILLER_4_197
*1512 FILLER_4_206
*1513 FILLER_4_218
*1514 FILLER_4_230
*1515 FILLER_4_24
*1516 FILLER_4_242
*1517 FILLER_4_250
*1518 FILLER_4_253
*1519 FILLER_4_265
*1520 FILLER_4_277
*1521 FILLER_4_289
*1522 FILLER_4_297
*1523 FILLER_4_3
*1524 FILLER_4_32
*1525 FILLER_4_36
*1526 FILLER_4_40
*1527 FILLER_4_52
*1528 FILLER_4_56
*1529 FILLER_4_77
*1530 FILLER_4_83
*1531 FILLER_4_85
*1532 FILLER_4_97
*1533 FILLER_5_100
*1534 FILLER_5_116
*1535 FILLER_5_128
*1536 FILLER_5_139
*1537 FILLER_5_14
*1538 FILLER_5_151
*1539 FILLER_5_163
*1540 FILLER_5_167
*1541 FILLER_5_169
*1542 FILLER_5_181
*1543 FILLER_5_193
*1544 FILLER_5_205
*1545 FILLER_5_217
*1546 FILLER_5_223
*1547 FILLER_5_225
*1548 FILLER_5_237
*1549 FILLER_5_249
*1550 FILLER_5_261
*1551 FILLER_5_273
*1552 FILLER_5_279
*1553 FILLER_5_281
*1554 FILLER_5_293
*1555 FILLER_5_3
*1556 FILLER_5_38
*1557 FILLER_5_48
*1558 FILLER_5_57
*1559 FILLER_5_64
*1560 FILLER_5_72
*1561 FILLER_5_93
*1562 FILLER_6_113
*1563 FILLER_6_125
*1564 FILLER_6_136
*1565 FILLER_6_145
*1566 FILLER_6_15
*1567 FILLER_6_153
*1568 FILLER_6_164
*1569 FILLER_6_176
*1570 FILLER_6_188
*1571 FILLER_6_197
*1572 FILLER_6_209
*1573 FILLER_6_221
*1574 FILLER_6_233
*1575 FILLER_6_245
*1576 FILLER_6_251
*1577 FILLER_6_253
*1578 FILLER_6_265
*1579 FILLER_6_27
*1580 FILLER_6_277
*1581 FILLER_6_289
*1582 FILLER_6_29
*1583 FILLER_6_297
*1584 FILLER_6_3
*1585 FILLER_6_41
*1586 FILLER_6_53
*1587 FILLER_6_63
*1588 FILLER_6_75
*1589 FILLER_6_83
*1590 FILLER_6_88
*1591 FILLER_6_92
*1592 FILLER_7_101
*1593 FILLER_7_109
*1594 FILLER_7_116
*1595 FILLER_7_124
*1596 FILLER_7_133
*1597 FILLER_7_143
*1598 FILLER_7_151
*1599 FILLER_7_163
*1600 FILLER_7_167
*1601 FILLER_7_169
*1602 FILLER_7_181
*1603 FILLER_7_193
*1604 FILLER_7_205
*1605 FILLER_7_217
*1606 FILLER_7_223
*1607 FILLER_7_225
*1608 FILLER_7_237
*1609 FILLER_7_249
*1610 FILLER_7_261
*1611 FILLER_7_273
*1612 FILLER_7_279
*1613 FILLER_7_281
*1614 FILLER_7_293
*1615 FILLER_7_3
*1616 FILLER_7_30
*1617 FILLER_7_41
*1618 FILLER_7_47
*1619 FILLER_7_55
*1620 FILLER_7_77
*1621 FILLER_7_9
*1622 FILLER_8_105
*1623 FILLER_8_126
*1624 FILLER_8_138